tests/data/power_flow/1os2msr/sym_output.json
{
  "version": "1.0",
  "type": "sym_output",
  "is_batch": false,
  "attributes": {},
  "data": {
    "node": [
      {
        "id": 1,
        "energized": 1,
        "u": 10610.0,
        "u_pu": 1.01047619047619,
        "u_angle": -2.627547e-14
      },
      {
        "id": 2,
        "energized": 1,
        "u": 10610.92,
        "u_pu": 1.01056380952381,
        "u_angle": -0.00462800281
      },
      {
        "id": 3,
        "energized": 1,
        "u": 10606.13,
        "u_pu": 1.010107619047619,
        "u_angle": -0.00720327867
      }
    ],
    "line": [
      {
        "id": 4,
        "energized": 1,
        "loading": 0.404559,
        "p_from": 2402600.0,
        "q_from": -2933277.0,
        "i_from": 206.325118,
        "s_from": 3791649.0,
        "p_to": -2234973.0,
        "q_to": 1480636.0,
        "i_to": 145.871929,
        "s_to": 2680930.0
      },
      {
        "id": 5,
        "energized": 1,
        "loading": 0.218457,
        "p_from": 1224973.0,
        "q_from": -1690636.0,
        "i_from": 113.597848,
        "s_from": 2087776.0,
        "p_to": -1020000.0,
        "q_to": -220000.0,
        "i_to": 56.801043,
        "s_to": 1043456.0
      }
    ],
    "sym_load": [
      {
        "id": 7,
        "energized": 1,
        "p": 1010000.0,
        "q": 210000.0,
        "i": 56.13037,
        "s": 1031601.0,
        "pf": 0.979061
      },
      {
        "id": 8,
        "energized": 1,
        "p": 1020000.0,
        "q": 220000.0,
        "i": 56.801043,
        "s": 1043456.0,
        "pf": 0.977521
      }
    ]
  }
}
